* Идеальный диод — по умолчанию когда говорят "вставь диод"
.model diode D (IS=1e-14 N=1 RS=0.001 CJO=0 TT=0 BV=1e6 IBV=1e-14)
