* Идеальный стабилитрон — по умолчанию для "вставь стабилитрон"
* BV=5.0 — напряжение стабилизации 5В (можно менять)
.model zener D (IS=1e-14 N=1 RS=0.001 CJO=0 TT=0 BV=5.0 IBV=1m)
