* 2N7000 N-channel MOSFET model
* Datasheet: ON Semiconductor / Vishay
* Vds_max = 60V, Id_max = 200mA, Vgs(th) = 0.8-3V

.MODEL 2N7000 NMOS (
+ VTO=1.8    KP=0.12     GAMMA=0.65   PHI=0.75
+ LAMBDA=0.01 RD=1.0     RS=1.0       IS=1e-14
+ CBD=2e-12  CBS=2e-12   CGSO=2e-10  CGOO=2e-11
+ CGDO=2e-10 PB=0.8      MJ=0.5      TOX=5e-8
+ LD=0.0     WD=0.0      RDS=1e8     )
