* 2N2222 — NPN General Purpose Transistor
* Manufacturer: Generic
* Vceo=40V, Ic=800mA, Ft=250MHz
.model 2N2222 NPN (IS=14.34f XTI=3 EG=1.11 VAF=74.03 BF=255.9 NE=1.307 ISE=14.34f IKF=0.2847 XTB=1.5 BR=6.092 NC=2 ISC=14.34f IKR=0 RC=1 CJC=7.306p MJC=0.3416 VJC=0.75 FC=0.5 CJE=22.01p MJE=0.377 VJE=0.75 TR=46.91n TF=411.1p ITF=0.4 VTF=4 XTF=3 RB=10)
