* KT361B — PNP silicon planar epitaxial transistor
* Vceo=35V, Ic=100mA, Ft=250MHz, hfe=200-350
* Package: TO-92 (plastic)
* Complement to KT315B
*
* Gummel-Poon model verified with ngspice-44 (DC, TRAN, OP)
.model KT361B PNP (
+ IS=5.0f   BF=250   VAF=60   NF=1.0   ISE=0.5p  NE=1.5
+ BR=8     NR=1.0   ISC=0.1p  NC=2.0   IKF=0.08  IKR=0.02
+ RB=25    RC=5.0   RE=0.8
+ CJE=18p  VJE=0.75 MJE=0.33
+ CJC=7.0p VJC=0.75 MJC=0.33
+ TF=0.6n  TR=80n   XTF=3    VTF=5    ITF=0.1
+ XTB=1.5  XTI=3    EG=1.11)
