.model P2N2222A NPN (BF=200 IS=1e-14 VAF=100 CJE=5p CJC=3p TF=0.3n RB=10 RC=1 RE=0.5)
