* transformer-viking-1 — силовой трансформатор Viking B-2 (линейная SPICE модель)
*
* Распиновка (8 выводов):
*   1 — первичная обмотка AVR, начало
*   2 — первичная обмотка AVR, средняя точка (отвод)
*   3 — первичная обмотка AVR, конец
*   4 — вторичная силовая обмотка 12V, начало
*   5 — вторичная силовая обмотка 12V, средняя точка
*   6 — вторичная силовая обмотка 12V, конец
*   7 — вторичная сервисная обмотка, начало
*   8 — вторичная сервисная обмотка, конец
*
* Параметры обмоток:
*   L1 (1-2): 20mH, R1=0.5 Ом
*   L2 (2-3): 1.4H,  R2=6.5 Ом
*   L3 (4-5): 2.0mH, R3=0.025 Ом
*   L4 (5-6): 2.0mH, R4=0.025 Ом
*   L5 (7-8): 12mH,  R5=0.694 Ом
*
* Коэффициенты связи:
*   K(L1,L2) = 0.999 — обмотки одного сердечника (AVR)
*   K(L3,L4) = 0.999 — обмотки одного сердечника (12V)
*   Все остальные пары K = 0.985 — рассеяние реального трансформатора ИБП
*
.SUBCKT transformer-viking-1 1 2 3 4 5 6 7 8
* 1G пулл-дауны на всех внешних выводах — предотвращают плавающие узлы
* при неподключённых (NC) обмотках
RPin1 1 0 1G
RPin4 4 0 1G
RPin5 5 0 1G
RPin6 6 0 1G
* Внутренние узлы соединения R-L для каждой обмотки
R1 1 _L1a 0.5
L1 _L1a 2 20m
R2 2 _L2a 6.5
L2 _L2a 3 1.4
R3 4 _L3a 0.025
L3 _L3a 5 2.0m
R4 5 _L4a 0.025
L4 _L4a 6 2.0m
R5 7 _L5a 0.694
L5 _L5a 8 12m
* 1G пулл-дауны на внутренних узлах — path to GND для K-связанных катушек
RGnd_L1a _L1a 0 1G
RGnd_L2a _L2a 0 1G
RGnd_L3a _L3a 0 1G
RGnd_L4a _L4a 0 1G
RGnd_L5a _L5a 0 1G
* Коэффициенты связи — все 10 пар
K1 L1 L2 0.999
K2 L3 L4 0.999
K3 L1 L3 0.985
K4 L1 L4 0.985
K5 L1 L5 0.985
K6 L2 L3 0.985
K7 L2 L4 0.985
K8 L2 L5 0.985
K9 L3 L5 0.985
K10 L4 L5 0.985
.ENDS transformer-viking-1
