* 1N4001 — General Purpose Rectifier Diode
* Manufacturer: Generic
* Vrrm=50V, If=1A
.model 1N4001 D (IS=2.52n RS=0.0346 N=1.752 XTI=3 EG=1.11 CJO=40p M=0.333 VJ=0.75 FC=0.5 BV=50 IBV=10u)
